83
 energy: -102.047893144593 gnorm: 0.000388730567 xtb: 6.3.0 (preview)
C           1.80176098104847     0.12526282599768     3.07112149461641
C           1.68375985231664    -0.77369092671257     1.84086466449220
C           2.72797999369024    -1.89314694990543     1.89563009340264
C           1.84321720247971    -0.02097925343151     0.54197554004407
C           2.82485510904390     0.94708986546149     0.43068157431994
C           3.05899355168201     1.60044140965953    -0.76911705058625
C           4.08758634178049     2.69915036886577    -0.87907104454560
C           3.68480715135463     3.89431338308004    -0.01259722057384
C           5.47958121865458     2.19456959241862    -0.49449967834172
C           2.32934142728808     1.20288591300922    -1.87250963097567
C           1.35204572952500     0.21080393834201    -1.81601157446779
C           0.80049181456866    -0.17670445454823    -3.18110532702839
C          -0.55889436048618    -0.86634640334951    -3.29150488148630
C           1.85633547927773    -1.05872967719723    -3.86307048359127
C           1.06478830507713    -0.36258592353483    -0.57301712528439
C          -0.04208446337991    -1.34294753217343    -0.43248897504693
C          -1.31395840554856    -0.94466882668013    -0.00474109198120
P          -1.34673808140710     0.66819882478629     0.93436432195714
C          -2.23230071614848     1.91042819785172    -0.21875782389623
C          -2.56201747072164     3.18095189506811     0.56604663168141
C          -3.46493417316009     1.39454099728256    -0.94944622235840
C          -1.15480677150321     2.29159775945689    -1.23886568407390
C          -2.46841288827496     0.34241611850801     2.47362531782801
C          -1.93588809503450     1.34973119489784     3.50362550230660
C          -2.14629521240745    -1.06017689822405     2.99423181675919
C          -3.98418078252523     0.50848948230460     2.39429901974393
C          -2.36632565885662    -1.87159807410366    -0.12541626162212
O          -3.62847600407795    -1.41681415110465     0.13104728059777
C          -4.71517104828210    -2.28459044562552    -0.05711460446076
C          -2.10559107032721    -3.17648248051744    -0.50947254085222
C          -0.81543776960652    -3.59452635481455    -0.79567108823881
C           0.21597945240861    -2.67444918579233    -0.79335228611178
O           1.51594560936788    -2.96563448623835    -1.12007699725695
C           1.83648888564692    -4.29081360897198    -1.45425123968564
H           2.83462686457437     0.41009785234949     3.25646931988915
H           1.21202835799259     1.02790717258622     2.93156263426137
H           1.43995669111106    -0.39925223036670     3.95365100312522
H           0.69197774397137    -1.23498044634450     1.84409178326615
H           2.63744908841491    -2.53228885475730     1.02192048421778
H           3.73161782132802    -1.47270867884568     1.90733562075417
H           2.59266504091305    -2.49631701511012     2.79158650983345
H           3.41704091569525     1.20005696032316     1.29521442073456
H           4.12270995726476     3.03088153856153    -1.92320424928679
H           4.40384486967992     4.70347209933884    -0.12401467264045
H           3.64342848782400     3.61127346279783     1.03626654283749
H           2.70313462555039     4.25927758992216    -0.30681563300224
H           6.22195223791181     2.97346100978755    -0.65691169130573
H           5.74721547428664     1.32885114712310    -1.09651831061833
H           5.51103296756220     1.90630942178397     0.55312783524364
H           2.52763240976258     1.67921617274957    -2.82392111193884
H           0.72665981913401     0.75699779595967    -3.75439833919808
H          -1.31792032906348    -0.38102499046082    -2.68593266432002
H          -0.50442651072900    -1.90879154593876    -2.99607461809989
H          -0.88319331445321    -0.82945646286083    -4.33139858685631
H           2.01445082431969    -1.95992435522542    -3.27762477724733
H           1.52841537126829    -1.33898950487944    -4.86247350501580
H           2.80619387310544    -0.53565172080682    -3.94225542961827
H          -2.84730791752128     3.97254786847169    -0.12746920531625
H          -1.68792097638153     3.51956440108860     1.12059404874744
H          -3.38490338886424     3.03816415080019     1.25933478535490
H          -4.26178989030498     1.14200191269809    -0.25830670925260
H          -3.22407750414397     0.50988283923439    -1.53367566840110
H          -3.83164312076926     2.16336171222533    -1.63135755832950
H          -0.86098948562308     1.43746325417750    -1.83688618848917
H          -0.26522018150017     2.66591694942532    -0.73390129932040
H          -1.52602236743167     3.06859393363293    -1.90723895785249
H          -0.87200104223163     1.20063153408434     3.67091168234632
H          -2.09013602595820     2.37397681343705     3.17461086076301
H          -2.45109170481578     1.21885964187079     4.45524185635049
H          -2.53796580026527    -1.17643694410542     4.00523762882072
H          -2.58915525159317    -1.83129618036865     2.37155670979177
H          -1.07070354397139    -1.22184498212491     3.03033802313977
H          -4.26856709415900     1.53688558017680     2.19265566449043
H          -4.41680019450986    -0.13099406609794     1.63738567054498
H          -4.41428067869837     0.23307982570423     3.35875655058453
H          -4.68964355546543    -3.12932444252122     0.64077226877289
H          -5.60900056719653    -1.69195076436780     0.13715891765782
H          -4.75614594341182    -2.66327750379287    -1.08381916666771
H          -2.90072689103104    -3.90215829507920    -0.57352976730640
H          -0.65055310674387    -4.63005549679887    -1.04738542051819
H           1.62886725895209    -4.97883783026022    -0.62739671394897
H           1.29789337287677    -4.62706277538169    -2.34751336050146
H           2.90629839312590    -4.29229436338655    -1.66027726742268
